.SUBCKT BSS138LT1 1 2 3
MM1 1 2 3 3 Nch W=220.00n L=180.00n           
.ENDS bss138lt1

