.SUBCKT bss84lt1 1 2 3
MM0 1 2 3 3 Pch W=420.00n L=180.00n           
.ENDS bss84lt1


