.SUBCKT bss84lt1 1 2 3
      .model switch_model sw(vh=1 vt=1.5 ron=0 roff=1Meg) 
      s1 1 3 3 2 switch_model     
.ENDS bss84lt1


